
Ketcher 07311622422D 1   1.00000     0.00000     0

 16 15  0     0  0            999 V2000
   12.0477  -30.0806    0.0000 C   0  0  0  0  0  0  0  0  0  0  0  0
   12.0477  -31.0806    0.0000 C   0  0  0  0  0  0  0  0  0  0  0  0
   11.1815  -29.5805    0.0000 C   0  0  0  0  0  0  0  0  0  0  0  0
   11.1815  -31.5807    0.0000 C   0  0  0  0  0  0  0  0  0  0  0  0
   10.3154  -30.0806    0.0000 C   0  0  0  0  0  0  0  0  0  0  0  0
   10.3154  -31.0806    0.0000 C   0  0  0  0  0  0  0  0  0  0  0  0
   12.9137  -29.5805    0.0000 C   0  0  0  0  0  0  0  0  0  0  0  0
   13.7797  -30.0806    0.0000 C   0  0  0  0  0  0  0  0  0  0  0  0
   12.9137  -31.5806    0.0000 C   0  0  0  0  0  0  0  0  0  0  0  0
   13.7797  -31.0806    0.0000 C   0  0  0  0  0  0  0  0  0  0  0  0
   14.6458  -29.5808    0.0000 C   0  0  0  0  0  0  0  0  0  0  0  0
   15.5117  -30.0809    0.0000 C   0  0  0  0  0  0  0  0  0  0  0  0
   14.6457  -31.5807    0.0000 C   0  0  0  0  0  0  0  0  0  0  0  0
   15.5117  -31.0808    0.0000 C   0  0  0  0  0  0  0  0  0  0  0  0
   16.3777  -29.5811    0.0000 C   0  0  0  0  0  0  0  0  0  0  0  0
   16.3774  -31.5808    0.0000 C   0  0  0  0  0  0  0  0  0  0  0  0
  3  1  1  0     0  0
  4  2  1  0     0  0
  5  3  1  0     0  0
  6  4  1  0     0  0
  6  5  1  0     0  0
  7  1  1  0     0  0
  8  7  1  0     0  0
  9  2  1  0     0  0
 10  9  1  0     0  0
 11  8  1  0     0  0
 12 11  1  0     0  0
 13 10  1  0     0  0
 14 13  1  0     0  0
 15 12  1  0     0  0
 16 14  1  0     0  0
M  END
> <ID>
CHEBI:45296

> <NAME>
hexadecane

> <DEFINITION>
A straight-chain alkane with 16 carbon atoms. It is a component of essential oil isolated from long pepper.

> <STAR>
3

> <SECONDARY_ID>
CHEBI:45292; CHEBI:32910

> <SYNONYM>
Zetan; n-hexadecane; n-cetane; Hexadekan; HEXADECANE; CH3-[CH2]14-CH3; cetane; Cetan

> <IUPAC_NAME>
hexadecane

> <FORMULA>
C16H34

> <MASS>
226.442

> <MONOISOTOPIC_MASS>
226.26605

> <CHARGE>
0

> <SMILES>
C(CCCCCCCCCC)CCCCC

> <INCHI>
InChI=1S/C16H34/c1-3-5-7-9-11-13-15-16-14-12-10-8-6-4-2/h3-16H2,1-2H3

> <INCHIKEY>
DCAYPVUWAIABOU-UHFFFAOYSA-N

> <BEILSTEIN_REGISTRY_NUMBER>
1736592

> <CAS_REGISTRY_NUMBER>
544-76-3

> <GMELIN_REGISTRY_NUMBER>
103739

> <REAXYS_REGISTRY_NUMBER>
1736592

> <CHEMIDPLUS>
544-76-3

> <HMDB_ACCESSION>
HMDB0033792

> <NIST_CHEMISTRY_WEBBOOK>
544-76-3

> <PDBECHEM_ACCESSION>
R16

> <WIKIPEDIA_ACCESSION>
Hexadecane

> <PUBMED_CITATION>
17314143; 19114507; 205235; 24657864; 24765642; 2480087; 27439360

$$$$
