
Marvin  06150613092D          

  7  6  0  0  0  0            999 V2000
    1.4289    0.2357    0.0000 C   0  0  0  0  0  0  0  0  0  0  0  0
    0.7145   -0.1768    0.0000 C   0  0  0  0  0  0  0  0  0  0  0  0
    0.0000    0.2357    0.0000 C   0  0  0  0  0  0  0  0  0  0  0  0
   -0.7145   -0.1768    0.0000 C   0  0  0  0  0  0  0  0  0  0  0  0
   -1.4289    0.2357    0.0000 C   0  0  0  0  0  0  0  0  0  0  0  0
   -2.1434   -0.1768    0.0000 C   0  0  0  0  0  0  0  0  0  0  0  0
    2.1434   -0.1768    0.0000 C   0  0  0  0  0  0  0  0  0  0  0  0
  2  1  1  0  0  0  0
  3  2  1  0  0  0  0
  4  3  1  0  0  0  0
  5  4  1  0  0  0  0
  6  5  1  0  0  0  0
  7  1  1  0  0  0  0
M  END
> <ID>
CHEBI:43098

> <NAME>
heptane

> <DEFINITION>
A straight-chain alkane with seven carbon atoms. It has been found in Jeffrey pine (Pinus jeffreyi).

> <STAR>
3

> <SECONDARY_ID>
CHEBI:43095; CHEBI:32891

> <SYNONYM>
n-heptane; Heptan; CH3-[CH2]5-CH3

> <IUPAC_NAME>
heptane

> <FORMULA>
C7H16

> <MASS>
100.20194

> <MONOISOTOPIC_MASS>
100.12520

> <CHARGE>
0

> <SMILES>
CCCCCCC

> <INCHI>
InChI=1S/C7H16/c1-3-5-7-6-4-2/h3-7H2,1-2H3

> <INCHIKEY>
IMNFDUFMRHMDMM-UHFFFAOYSA-N

> <BEILSTEIN_REGISTRY_NUMBER>
1730763

> <CAS_REGISTRY_NUMBER>
142-82-5

> <GMELIN_REGISTRY_NUMBER>
49760

> <CHEMIDPLUS>
142-82-5

> <HMDB_ACCESSION>
HMDB0031447

> <METACYC_ACCESSION>
CPD-9286

> <NIST_CHEMISTRY_WEBBOOK>
142-82-5

> <PDBECHEM_ACCESSION>
HP6

> <WIKIPEDIA_ACCESSION>
Heptane

> <PUBMED_CITATION>
12226360; 23544797

$$$$
